6

O   -1.36379028152314     -0.25299695573671      0.00121439304729
H   -0.41971965113748     -0.09405988211549      0.00059726990678
H   -1.77781772550030      0.60776233443113     -0.00052271337774
O   1.10504469001046      0.16263881952858     -0.00039939550457
H   1.73470294903695     -0.56075534404748     -0.00211249974354
H   1.63202081911352      0.96481872793998      0.01257194567178
