6

O -1.3637903 -0.2529970 0.0012144
H -0.4197196 -0.0940599 0.0005973
H -1.7778177 0.6077623 -0.0005227
O 1.1050447 0.1626388 -0.0003994
H 1.7347029 -0.5607554 -0.0021125
H 1.6320208 0.9648187 0.0125719
6

O -1.4637903 -0.2529970 0.0012144
H -0.5197196 -0.0940599 0.0005973
H -1.8778177 0.6077623 -0.0005227
O 1.1050447 0.1626388 -0.0003994
H 1.7347029 -0.5607554 -0.0021125
H 1.6320208 0.9648187 0.0125719
6

O -1.5637903 -0.2529970 0.0012144
H -0.6197196 -0.0940599 0.0005973
H -1.9778177 0.6077623 -0.0005227
O 1.1050447 0.1626388 -0.0003994
H 1.7347029 -0.5607554 -0.0021125
H 1.6320208 0.9648187 0.0125719
6

O -1.6637903 -0.2529970 0.0012144
H -0.7197196 -0.0940599 0.0005973
H -2.0778177 0.6077623 -0.0005227
O 1.1050447 0.1626388 -0.0003994
H 1.7347029 -0.5607554 -0.0021125
H 1.6320208 0.9648187 0.0125719
6

O -1.7637903 -0.2529970 0.0012144
H -0.8197196 -0.0940599 0.0005973
H -2.1778177 0.6077623 -0.0005227
O 1.1050447 0.1626388 -0.0003994
H 1.7347029 -0.5607554 -0.0021125
H 1.6320208 0.9648187 0.0125719
6

O -1.8637903 -0.2529970 0.0012144
H -0.9197196 -0.0940599 0.0005973
H -2.2778177 0.6077623 -0.0005227
O 1.1050447 0.1626388 -0.0003994
H 1.7347029 -0.5607554 -0.0021125
H 1.6320208 0.9648187 0.0125719
6

O -1.9637903 -0.2529970 0.0012144
H -1.0197196 -0.0940599 0.0005973
H -2.3778177 0.6077623 -0.0005227
O 1.1050447 0.1626388 -0.0003994
H 1.7347029 -0.5607554 -0.0021125
H 1.6320208 0.9648187 0.0125719
6

O -2.0637903 -0.2529970 0.0012144
H -1.1197196 -0.0940599 0.0005973
H -2.4778177 0.6077623 -0.0005227
O 1.1050447 0.1626388 -0.0003994
H 1.7347029 -0.5607554 -0.0021125
H 1.6320208 0.9648187 0.0125719
6

O -2.1637903 -0.2529970 0.0012144
H -1.2197196 -0.0940599 0.0005973
H -2.5778177 0.6077623 -0.0005227
O 1.1050447 0.1626388 -0.0003994
H 1.7347029 -0.5607554 -0.0021125
H 1.6320208 0.9648187 0.0125719
6

O -2.2637903 -0.2529970 0.0012144
H -1.3197196 -0.0940599 0.0005973
H -2.6778177 0.6077623 -0.0005227
O 1.1050447 0.1626388 -0.0003994
H 1.7347029 -0.5607554 -0.0021125
H 1.6320208 0.9648187 0.0125719
6

O -2.3637903 -0.2529970 0.0012144
H -1.4197196 -0.0940599 0.0005973
H -2.7778177 0.6077623 -0.0005227
O 1.1050447 0.1626388 -0.0003994
H 1.7347029 -0.5607554 -0.0021125
H 1.6320208 0.9648187 0.0125719
6

O -2.4637903 -0.2529970 0.0012144
H -1.5197196 -0.0940599 0.0005973
H -2.8778177 0.6077623 -0.0005227
O 1.1050447 0.1626388 -0.0003994
H 1.7347029 -0.5607554 -0.0021125
H 1.6320208 0.9648187 0.0125719
6

O -2.5637903 -0.2529970 0.0012144
H -1.6197196 -0.0940599 0.0005973
H -2.9778177 0.6077623 -0.0005227
O 1.1050447 0.1626388 -0.0003994
H 1.7347029 -0.5607554 -0.0021125
H 1.6320208 0.9648187 0.0125719
6

O -2.6637903 -0.2529970 0.0012144
H -1.7197196 -0.0940599 0.0005973
H -3.0778177 0.6077623 -0.0005227
O 1.1050447 0.1626388 -0.0003994
H 1.7347029 -0.5607554 -0.0021125
H 1.6320208 0.9648187 0.0125719
6

O -2.7637903 -0.2529970 0.0012144
H -1.8197196 -0.0940599 0.0005973
H -3.1778177 0.6077623 -0.0005227
O 1.1050447 0.1626388 -0.0003994
H 1.7347029 -0.5607554 -0.0021125
H 1.6320208 0.9648187 0.0125719
6

O -2.8637903 -0.2529970 0.0012144
H -1.9197196 -0.0940599 0.0005973
H -3.2778177 0.6077623 -0.0005227
O 1.1050447 0.1626388 -0.0003994
H 1.7347029 -0.5607554 -0.0021125
H 1.6320208 0.9648187 0.0125719
6

O -2.9637903 -0.2529970 0.0012144
H -2.0197196 -0.0940599 0.0005973
H -3.3778177 0.6077623 -0.0005227
O 1.1050447 0.1626388 -0.0003994
H 1.7347029 -0.5607554 -0.0021125
H 1.6320208 0.9648187 0.0125719
6

O -3.0637903 -0.2529970 0.0012144
H -2.1197196 -0.0940599 0.0005973
H -3.4778177 0.6077623 -0.0005227
O 1.1050447 0.1626388 -0.0003994
H 1.7347029 -0.5607554 -0.0021125
H 1.6320208 0.9648187 0.0125719
6

O -3.1637903 -0.2529970 0.0012144
H -2.2197196 -0.0940599 0.0005973
H -3.5778177 0.6077623 -0.0005227
O 1.1050447 0.1626388 -0.0003994
H 1.7347029 -0.5607554 -0.0021125
H 1.6320208 0.9648187 0.0125719
6

O -3.2637903 -0.2529970 0.0012144
H -2.3197196 -0.0940599 0.0005973
H -3.6778177 0.6077623 -0.0005227
O 1.1050447 0.1626388 -0.0003994
H 1.7347029 -0.5607554 -0.0021125
H 1.6320208 0.9648187 0.0125719
6

O -3.3637903 -0.2529970 0.0012144
H -2.4197196 -0.0940599 0.0005973
H -3.7778177 0.6077623 -0.0005227
O 1.1050447 0.1626388 -0.0003994
H 1.7347029 -0.5607554 -0.0021125
H 1.6320208 0.9648187 0.0125719
6

O -3.4637903 -0.2529970 0.0012144
H -2.5197196 -0.0940599 0.0005973
H -3.8778177 0.6077623 -0.0005227
O 1.1050447 0.1626388 -0.0003994
H 1.7347029 -0.5607554 -0.0021125
H 1.6320208 0.9648187 0.0125719
6

O -3.5637903 -0.2529970 0.0012144
H -2.6197196 -0.0940599 0.0005973
H -3.9778177 0.6077623 -0.0005227
O 1.1050447 0.1626388 -0.0003994
H 1.7347029 -0.5607554 -0.0021125
H 1.6320208 0.9648187 0.0125719
6

O -3.6637903 -0.2529970 0.0012144
H -2.7197196 -0.0940599 0.0005973
H -4.0778177 0.6077623 -0.0005227
O 1.1050447 0.1626388 -0.0003994
H 1.7347029 -0.5607554 -0.0021125
H 1.6320208 0.9648187 0.0125719
6

O -3.7637903 -0.2529970 0.0012144
H -2.8197196 -0.0940599 0.0005973
H -4.1778177 0.6077623 -0.0005227
O 1.1050447 0.1626388 -0.0003994
H 1.7347029 -0.5607554 -0.0021125
H 1.6320208 0.9648187 0.0125719
6

O -3.8637903 -0.2529970 0.0012144
H -2.9197196 -0.0940599 0.0005973
H -4.2778177 0.6077623 -0.0005227
O 1.1050447 0.1626388 -0.0003994
H 1.7347029 -0.5607554 -0.0021125
H 1.6320208 0.9648187 0.0125719
6

O -3.9637903 -0.2529970 0.0012144
H -3.0197196 -0.0940599 0.0005973
H -4.3778177 0.6077623 -0.0005227
O 1.1050447 0.1626388 -0.0003994
H 1.7347029 -0.5607554 -0.0021125
H 1.6320208 0.9648187 0.0125719
6

O -4.0637903 -0.2529970 0.0012144
H -3.1197196 -0.0940599 0.0005973
H -4.4778177 0.6077623 -0.0005227
O 1.1050447 0.1626388 -0.0003994
H 1.7347029 -0.5607554 -0.0021125
H 1.6320208 0.9648187 0.0125719
6

O -4.1637903 -0.2529970 0.0012144
H -3.2197196 -0.0940599 0.0005973
H -4.5778177 0.6077623 -0.0005227
O 1.1050447 0.1626388 -0.0003994
H 1.7347029 -0.5607554 -0.0021125
H 1.6320208 0.9648187 0.0125719
6

O -4.2637903 -0.2529970 0.0012144
H -3.3197196 -0.0940599 0.0005973
H -4.6778177 0.6077623 -0.0005227
O 1.1050447 0.1626388 -0.0003994
H 1.7347029 -0.5607554 -0.0021125
H 1.6320208 0.9648187 0.0125719
6

O -4.3637903 -0.2529970 0.0012144
H -3.4197196 -0.0940599 0.0005973
H -4.7778177 0.6077623 -0.0005227
O 1.1050447 0.1626388 -0.0003994
H 1.7347029 -0.5607554 -0.0021125
H 1.6320208 0.9648187 0.0125719
6

O -4.4637903 -0.2529970 0.0012144
H -3.5197196 -0.0940599 0.0005973
H -4.8778177 0.6077623 -0.0005227
O 1.1050447 0.1626388 -0.0003994
H 1.7347029 -0.5607554 -0.0021125
H 1.6320208 0.9648187 0.0125719
6

O -4.5637903 -0.2529970 0.0012144
H -3.6197196 -0.0940599 0.0005973
H -4.9778177 0.6077623 -0.0005227
O 1.1050447 0.1626388 -0.0003994
H 1.7347029 -0.5607554 -0.0021125
H 1.6320208 0.9648187 0.0125719
6

O -4.6637903 -0.2529970 0.0012144
H -3.7197196 -0.0940599 0.0005973
H -5.0778177 0.6077623 -0.0005227
O 1.1050447 0.1626388 -0.0003994
H 1.7347029 -0.5607554 -0.0021125
H 1.6320208 0.9648187 0.0125719
6

O -4.7637903 -0.2529970 0.0012144
H -3.8197196 -0.0940599 0.0005973
H -5.1778177 0.6077623 -0.0005227
O 1.1050447 0.1626388 -0.0003994
H 1.7347029 -0.5607554 -0.0021125
H 1.6320208 0.9648187 0.0125719
6

O -4.8637903 -0.2529970 0.0012144
H -3.9197196 -0.0940599 0.0005973
H -5.2778177 0.6077623 -0.0005227
O 1.1050447 0.1626388 -0.0003994
H 1.7347029 -0.5607554 -0.0021125
H 1.6320208 0.9648187 0.0125719
6

O -4.9637903 -0.2529970 0.0012144
H -4.0197196 -0.0940599 0.0005973
H -5.3778177 0.6077623 -0.0005227
O 1.1050447 0.1626388 -0.0003994
H 1.7347029 -0.5607554 -0.0021125
H 1.6320208 0.9648187 0.0125719
6

O -5.0637903 -0.2529970 0.0012144
H -4.1197196 -0.0940599 0.0005973
H -5.4778177 0.6077623 -0.0005227
O 1.1050447 0.1626388 -0.0003994
H 1.7347029 -0.5607554 -0.0021125
H 1.6320208 0.9648187 0.0125719
6

O -5.1637903 -0.2529970 0.0012144
H -4.2197196 -0.0940599 0.0005973
H -5.5778177 0.6077623 -0.0005227
O 1.1050447 0.1626388 -0.0003994
H 1.7347029 -0.5607554 -0.0021125
H 1.6320208 0.9648187 0.0125719
6

O -5.2637903 -0.2529970 0.0012144
H -4.3197196 -0.0940599 0.0005973
H -5.6778177 0.6077623 -0.0005227
O 1.1050447 0.1626388 -0.0003994
H 1.7347029 -0.5607554 -0.0021125
H 1.6320208 0.9648187 0.0125719
6

O -5.3637903 -0.2529970 0.0012144
H -4.4197196 -0.0940599 0.0005973
H -5.7778177 0.6077623 -0.0005227
O 1.1050447 0.1626388 -0.0003994
H 1.7347029 -0.5607554 -0.0021125
H 1.6320208 0.9648187 0.0125719
6

O -5.4637903 -0.2529970 0.0012144
H -4.5197196 -0.0940599 0.0005973
H -5.8778177 0.6077623 -0.0005227
O 1.1050447 0.1626388 -0.0003994
H 1.7347029 -0.5607554 -0.0021125
H 1.6320208 0.9648187 0.0125719
6

O -5.5637903 -0.2529970 0.0012144
H -4.6197196 -0.0940599 0.0005973
H -5.9778177 0.6077623 -0.0005227
O 1.1050447 0.1626388 -0.0003994
H 1.7347029 -0.5607554 -0.0021125
H 1.6320208 0.9648187 0.0125719
6

O -5.6637903 -0.2529970 0.0012144
H -4.7197196 -0.0940599 0.0005973
H -6.0778177 0.6077623 -0.0005227
O 1.1050447 0.1626388 -0.0003994
H 1.7347029 -0.5607554 -0.0021125
H 1.6320208 0.9648187 0.0125719
6

O -5.7637903 -0.2529970 0.0012144
H -4.8197196 -0.0940599 0.0005973
H -6.1778177 0.6077623 -0.0005227
O 1.1050447 0.1626388 -0.0003994
H 1.7347029 -0.5607554 -0.0021125
H 1.6320208 0.9648187 0.0125719
6

O -5.8637903 -0.2529970 0.0012144
H -4.9197196 -0.0940599 0.0005973
H -6.2778177 0.6077623 -0.0005227
O 1.1050447 0.1626388 -0.0003994
H 1.7347029 -0.5607554 -0.0021125
H 1.6320208 0.9648187 0.0125719
6

O -5.9637903 -0.2529970 0.0012144
H -5.0197196 -0.0940599 0.0005973
H -6.3778177 0.6077623 -0.0005227
O 1.1050447 0.1626388 -0.0003994
H 1.7347029 -0.5607554 -0.0021125
H 1.6320208 0.9648187 0.0125719
6

O -6.0637903 -0.2529970 0.0012144
H -5.1197196 -0.0940599 0.0005973
H -6.4778177 0.6077623 -0.0005227
O 1.1050447 0.1626388 -0.0003994
H 1.7347029 -0.5607554 -0.0021125
H 1.6320208 0.9648187 0.0125719
6

O -6.1637903 -0.2529970 0.0012144
H -5.2197196 -0.0940599 0.0005973
H -6.5778177 0.6077623 -0.0005227
O 1.1050447 0.1626388 -0.0003994
H 1.7347029 -0.5607554 -0.0021125
H 1.6320208 0.9648187 0.0125719
6

O -6.2637903 -0.2529970 0.0012144
H -5.3197196 -0.0940599 0.0005973
H -6.6778177 0.6077623 -0.0005227
O 1.1050447 0.1626388 -0.0003994
H 1.7347029 -0.5607554 -0.0021125
H 1.6320208 0.9648187 0.0125719
6

O -6.3637903 -0.2529970 0.0012144
H -5.4197196 -0.0940599 0.0005973
H -6.7778177 0.6077623 -0.0005227
O 1.1050447 0.1626388 -0.0003994
H 1.7347029 -0.5607554 -0.0021125
H 1.6320208 0.9648187 0.0125719
6

O -6.4637903 -0.2529970 0.0012144
H -5.5197196 -0.0940599 0.0005973
H -6.8778177 0.6077623 -0.0005227
O 1.1050447 0.1626388 -0.0003994
H 1.7347029 -0.5607554 -0.0021125
H 1.6320208 0.9648187 0.0125719
6

O -6.5637903 -0.2529970 0.0012144
H -5.6197196 -0.0940599 0.0005973
H -6.9778177 0.6077623 -0.0005227
O 1.1050447 0.1626388 -0.0003994
H 1.7347029 -0.5607554 -0.0021125
H 1.6320208 0.9648187 0.0125719
6

O -6.6637903 -0.2529970 0.0012144
H -5.7197196 -0.0940599 0.0005973
H -7.0778177 0.6077623 -0.0005227
O 1.1050447 0.1626388 -0.0003994
H 1.7347029 -0.5607554 -0.0021125
H 1.6320208 0.9648187 0.0125719
6

O -6.7637903 -0.2529970 0.0012144
H -5.8197196 -0.0940599 0.0005973
H -7.1778177 0.6077623 -0.0005227
O 1.1050447 0.1626388 -0.0003994
H 1.7347029 -0.5607554 -0.0021125
H 1.6320208 0.9648187 0.0125719
6

O -6.8637903 -0.2529970 0.0012144
H -5.9197196 -0.0940599 0.0005973
H -7.2778177 0.6077623 -0.0005227
O 1.1050447 0.1626388 -0.0003994
H 1.7347029 -0.5607554 -0.0021125
H 1.6320208 0.9648187 0.0125719
6

O -6.9637903 -0.2529970 0.0012144
H -6.0197196 -0.0940599 0.0005973
H -7.3778177 0.6077623 -0.0005227
O 1.1050447 0.1626388 -0.0003994
H 1.7347029 -0.5607554 -0.0021125
H 1.6320208 0.9648187 0.0125719
6

O -7.0637903 -0.2529970 0.0012144
H -6.1197196 -0.0940599 0.0005973
H -7.4778177 0.6077623 -0.0005227
O 1.1050447 0.1626388 -0.0003994
H 1.7347029 -0.5607554 -0.0021125
H 1.6320208 0.9648187 0.0125719
6

O -7.1637903 -0.2529970 0.0012144
H -6.2197196 -0.0940599 0.0005973
H -7.5778177 0.6077623 -0.0005227
O 1.1050447 0.1626388 -0.0003994
H 1.7347029 -0.5607554 -0.0021125
H 1.6320208 0.9648187 0.0125719
6

O -7.2637903 -0.2529970 0.0012144
H -6.3197196 -0.0940599 0.0005973
H -7.6778177 0.6077623 -0.0005227
O 1.1050447 0.1626388 -0.0003994
H 1.7347029 -0.5607554 -0.0021125
H 1.6320208 0.9648187 0.0125719
6

O -7.3637903 -0.2529970 0.0012144
H -6.4197196 -0.0940599 0.0005973
H -7.7778177 0.6077623 -0.0005227
O 1.1050447 0.1626388 -0.0003994
H 1.7347029 -0.5607554 -0.0021125
H 1.6320208 0.9648187 0.0125719
6

O -7.4637903 -0.2529970 0.0012144
H -6.5197196 -0.0940599 0.0005973
H -7.8778177 0.6077623 -0.0005227
O 1.1050447 0.1626388 -0.0003994
H 1.7347029 -0.5607554 -0.0021125
H 1.6320208 0.9648187 0.0125719
6

O -7.5637903 -0.2529970 0.0012144
H -6.6197196 -0.0940599 0.0005973
H -7.9778177 0.6077623 -0.0005227
O 1.1050447 0.1626388 -0.0003994
H 1.7347029 -0.5607554 -0.0021125
H 1.6320208 0.9648187 0.0125719
6

O -7.6637903 -0.2529970 0.0012144
H -6.7197196 -0.0940599 0.0005973
H -8.0778177 0.6077623 -0.0005227
O 1.1050447 0.1626388 -0.0003994
H 1.7347029 -0.5607554 -0.0021125
H 1.6320208 0.9648187 0.0125719
6

O -7.7637903 -0.2529970 0.0012144
H -6.8197196 -0.0940599 0.0005973
H -8.1778177 0.6077623 -0.0005227
O 1.1050447 0.1626388 -0.0003994
H 1.7347029 -0.5607554 -0.0021125
H 1.6320208 0.9648187 0.0125719
6

O -7.8637903 -0.2529970 0.0012144
H -6.9197196 -0.0940599 0.0005973
H -8.2778177 0.6077623 -0.0005227
O 1.1050447 0.1626388 -0.0003994
H 1.7347029 -0.5607554 -0.0021125
H 1.6320208 0.9648187 0.0125719
6

O -7.9637903 -0.2529970 0.0012144
H -7.0197196 -0.0940599 0.0005973
H -8.3778177 0.6077623 -0.0005227
O 1.1050447 0.1626388 -0.0003994
H 1.7347029 -0.5607554 -0.0021125
H 1.6320208 0.9648187 0.0125719
6

O -8.0637903 -0.2529970 0.0012144
H -7.1197196 -0.0940599 0.0005973
H -8.4778177 0.6077623 -0.0005227
O 1.1050447 0.1626388 -0.0003994
H 1.7347029 -0.5607554 -0.0021125
H 1.6320208 0.9648187 0.0125719
6

O -8.1637903 -0.2529970 0.0012144
H -7.2197196 -0.0940599 0.0005973
H -8.5778177 0.6077623 -0.0005227
O 1.1050447 0.1626388 -0.0003994
H 1.7347029 -0.5607554 -0.0021125
H 1.6320208 0.9648187 0.0125719
6

O -8.2637903 -0.2529970 0.0012144
H -7.3197196 -0.0940599 0.0005973
H -8.6778177 0.6077623 -0.0005227
O 1.1050447 0.1626388 -0.0003994
H 1.7347029 -0.5607554 -0.0021125
H 1.6320208 0.9648187 0.0125719
6

O -8.3637903 -0.2529970 0.0012144
H -7.4197196 -0.0940599 0.0005973
H -8.7778177 0.6077623 -0.0005227
O 1.1050447 0.1626388 -0.0003994
H 1.7347029 -0.5607554 -0.0021125
H 1.6320208 0.9648187 0.0125719
6

O -8.4637903 -0.2529970 0.0012144
H -7.5197196 -0.0940599 0.0005973
H -8.8778177 0.6077623 -0.0005227
O 1.1050447 0.1626388 -0.0003994
H 1.7347029 -0.5607554 -0.0021125
H 1.6320208 0.9648187 0.0125719
6

O -8.5637903 -0.2529970 0.0012144
H -7.6197196 -0.0940599 0.0005973
H -8.9778177 0.6077623 -0.0005227
O 1.1050447 0.1626388 -0.0003994
H 1.7347029 -0.5607554 -0.0021125
H 1.6320208 0.9648187 0.0125719
6

O -8.6637903 -0.2529970 0.0012144
H -7.7197196 -0.0940599 0.0005973
H -9.0778177 0.6077623 -0.0005227
O 1.1050447 0.1626388 -0.0003994
H 1.7347029 -0.5607554 -0.0021125
H 1.6320208 0.9648187 0.0125719
6

O -8.7637903 -0.2529970 0.0012144
H -7.8197196 -0.0940599 0.0005973
H -9.1778177 0.6077623 -0.0005227
O 1.1050447 0.1626388 -0.0003994
H 1.7347029 -0.5607554 -0.0021125
H 1.6320208 0.9648187 0.0125719
